Version 4
SHEET 1 1036 1836
WIRE 288 -128 64 -128
WIRE 288 -16 288 -128
WIRE 64 128 64 -128
WIRE 288 192 288 48
WIRE 64 416 64 208
WIRE 176 416 64 416
WIRE 288 416 288 272
WIRE 288 416 176 416
WIRE 176 448 176 416
FLAG 176 448 0
SYMBOL voltage 64 112 R0
WINDOW 123 0 0 Left 0
WINDOW 39 0 0 Left 0
SYMATTR InstName V1
SYMATTR Value 1
SYMBOL res 272 176 R0
SYMATTR InstName R1
SYMATTR Value 1K
SYMBOL AutoGenerated\\1N4148 288 16 R90
SYMATTR InstName U1
TEXT 384 120 Left 2 !.DC V1 -4 4 0.01
TEXT 392 168 Left 2 !*\n*******************************************\n*\n*1N4148\n*\n*NXP Semiconductors\n*\n*High-speed diodes\n*\n*\n*\n*\n* \n*\n*\n*\n*\n*\n*\n*VRRM = 100V\n*IFRM = 450 mA \n*trr  = 4ns\n*\n*\n*Package pinning does not match Spice model pinning.\n*Package: SOD 27\n*\n*Package Pin 1 : Cathode\n*Package Pin 2 : Anode\n*\n*\n*\n*\n*Simulator: PSPICE\n*\n*******************************************\n*#\n.SUBCKT 1N4148 1 2 \n*\n* The resistor R1 does not reflect \n* a physical device. Instead it\n* improves modeling in the reverse \n* mode of operation.\n*\nR1 1 2 5.827E+9 \nD1 1 2 1N4148\n*\n.MODEL 1N4148 D \n+ IS = 4.352E-9 \n+ N = 1.906 \n+ BV = 110 \n+ IBV = 0.0001 \n+ RS = 0.6458 \n+ CJO = 7.048E-13 \n+ VJ = 0.869 \n+ M = 0.03 \n+ FC = 0.5 \n+ TT = 3.48E-9 \n.ENDS\n*
